New line. Another conflicting change.
qoelkj
Something new for merging
